FoamFile
{
    version     2.0;
    format      ascii;
    class       dictionary;
    location    "system";
    object      blockMeshDict;
}

convertToMeters 1;

vertices
(
    (0 0 0)
    (0.01 0 0)
    (0.01 0.005 0)
    (0 0.005 0)
    (0 0 0.001)
    (0.01 0 0.001)
    (0.01 0.005 0.001)
    (0 0.005 0.001)
);

blocks
(
    hex (0 1 2 3 4 5 6 7) (50 25 5) simpleGrading (1 1 1)
);

boundary
(
    allWalls
    {
        type wall;
        faces
        (
            (0 1 2 3)
            (4 5 6 7)
            (0 1 5 4)
            (2 3 7 6)
            (1 2 6 5)
            (0 3 7 4)
        );
    }
);
