FoamFile
{
    version     2.0;
    format      ascii;
    class       dictionary;
    location    "constant";
    object      transportProperties;
}

DT              DT [0 2 -1 0 0 0 0] 7.7e-6;

// Temperature-dependent scaling (used in code)
Tref 300;